Version 4.1
SHEET 1 880 680
WIRE -384 -144 -464 -144
WIRE 0 -144 -144 -144
WIRE 80 -144 0 -144
WIRE 400 -144 320 -144
WIRE -464 -64 -464 -144
WIRE 0 -64 0 -144
WIRE 256 -64 0 -64
WIRE 256 16 256 -64
WIRE 256 16 208 16
WIRE 304 16 256 16
WIRE -176 32 -272 32
WIRE -128 32 -176 32
WIRE 0 32 -48 32
WIRE -464 48 -464 -64
WIRE -336 48 -464 48
WIRE 256 48 256 16
WIRE 256 48 208 48
WIRE -240 64 -272 64
WIRE -240 96 -240 64
WIRE -464 192 -464 48
WIRE -352 192 -464 192
WIRE -176 192 -176 32
WIRE -176 192 -272 192
WIRE -128 192 -176 192
WIRE 0 192 -48 192
WIRE 144 192 80 192
WIRE 144 240 144 192
FLAG -240 96 0
FLAG -464 -64 out_ddx
FLAG 304 16 out_dx
IOPIN 304 16 Out
FLAG 400 -144 out_x
IOPIN 400 -144 Out
FLAG 144 240 0
SYMBOL res -32 16 R90
WINDOW 0 0 56 VBottom 2
WINDOW 3 32 56 VTop 2
SYMATTR InstName R1
SYMATTR Value 400k
SYMBOL res -32 176 R90
WINDOW 0 0 56 VBottom 2
WINDOW 3 32 56 VTop 2
SYMATTR InstName R3
SYMATTR Value 1k
SYMBOL res -256 176 R90
WINDOW 0 0 56 VBottom 2
WINDOW 3 32 56 VTop 2
SYMATTR InstName R4
SYMATTR Value 1k
SYMBOL OpAmps\\opamp -304 -16 M0
SYMATTR InstName U1
SYMBOL mul_lv1 112 32 M0
SYMATTR InstName X3
SYMBOL INT_lv2_u -272 -144 R0
WINDOW 1 -80 32 Left 2
WINDOW 39 53 77 Bottom 2
SYMATTR InstName X1
SYMATTR SpiceLine vol=0,uF=10u
SYMBOL INT_lv2_u 192 -144 R0
WINDOW 1 -80 32 Left 2
WINDOW 39 57 67 Bottom 2
SYMATTR InstName X2
SYMATTR SpiceLine vol=0,uF=10u
SYMBOL voltage -16 192 R270
WINDOW 0 32 56 VTop 2
WINDOW 3 -32 56 VBottom 2
SYMATTR InstName V1
SYMATTR Value -9.81
TEXT -496 280 Left 2 !.tran 10
TEXT -424 120 Left 2 !.lib opamp.sub
TEXT 200 168 Left 2 !.param spring=1k
TEXT 200 208 Left 2 ;.step param spring list 1k 3k 7k 10k 15k 20k
