Version 4.1
SHEET 1 880 680
WIRE -320 -80 -672 -80
WIRE -48 -80 -80 -80
WIRE 0 -80 -48 -80
WIRE 560 -80 240 -80
WIRE 560 0 560 -80
WIRE -48 16 -48 -80
WIRE 16 16 -48 16
WIRE 80 16 16 16
WIRE -672 48 -672 -80
WIRE 80 112 80 16
WIRE 80 112 32 112
WIRE 368 112 320 112
WIRE 560 112 560 0
WIRE 560 112 512 112
WIRE -384 128 -480 128
WIRE -336 128 -384 128
WIRE -176 128 -256 128
WIRE 112 128 80 128
WIRE -672 144 -672 48
WIRE -544 144 -672 144
WIRE 80 144 80 128
WIRE 80 144 32 144
WIRE 368 144 320 144
WIRE -448 160 -480 160
WIRE 368 176 368 144
WIRE -448 192 -448 160
WIRE 368 288 368 256
WIRE -672 320 -672 144
WIRE -560 320 -672 320
WIRE -384 320 -384 128
WIRE -384 320 -480 320
WIRE -336 320 -384 320
WIRE 560 320 560 112
WIRE 560 320 -256 320
FLAG -448 192 0
FLAG 368 288 0
FLAG 560 0 out_x
FLAG 16 16 out_dx
FLAG -672 48 input
SYMBOL OpAmps\\opamp -512 80 M0
SYMATTR InstName U1
SYMATTR SpiceLine Aol=10Meg
SYMATTR SpiceLine2 GBW=1G
SYMBOL res -240 112 R90
WINDOW 0 0 56 VBottom 2
WINDOW 3 32 56 VTop 2
SYMATTR InstName R1
SYMATTR Value 1k
SYMBOL res -240 304 R90
WINDOW 0 0 56 VBottom 2
WINDOW 3 32 56 VTop 2
SYMATTR InstName R2
SYMATTR Value 1k
SYMBOL res -464 304 R90
WINDOW 0 0 56 VBottom 2
WINDOW 3 32 56 VTop 2
SYMATTR InstName R3
SYMATTR Value 1k
SYMBOL voltage 368 160 R0
WINDOW 123 0 0 Left 0
WINDOW 39 0 0 Left 0
SYMATTR InstName V1
SYMATTR Value {myu}
SYMBOL INT_lv2 -208 -80 R0
WINDOW 39 86 60 Bottom 2
SYMATTR SpiceLine vol=1
SYMATTR InstName X1
SYMBOL INT_lv2 112 -80 R0
WINDOW 39 82 56 Bottom 2
SYMATTR SpiceLine vol=2
SYMATTR InstName X2
SYMBOL x2-1_lv1 448 112 M0
SYMATTR InstName X3
SYMBOL mul_lv1 -64 128 M0
SYMATTR InstName X4
SYMBOL mul_lv1 224 128 M0
SYMATTR InstName X5
TEXT -632 416 Left 2 !.lib opamp.sub
TEXT -432 416 Left 2 !.tran 20
TEXT 280 432 Left 2 ;.param myu=1.5
TEXT 288 472 Left 2 !.step param myu list 0 0.5 1 2 3 4 5 6 7 8 9
